data_global _chemical_name MyName
_cell_length_a 13.788582
_cell_length_b 19.106020
_cell_length_c 6.754998
_cell_angle_alpha 90.000000
_cell_angle_beta 90.000000
_cell_angle_gamma 90.000000
_symmetry_space_group_name_H-M 'P 1'
loop_
_atom_site_label
_atom_site_fract_x
_atom_site_fract_y
_atom_site_fract_z
Co 1.000000 1.000000 1.000000
Co 1.000000 0.500000 1.000000
Ni 0.100000 0.125000 1.000000
Fe 0.100000 0.625000 1.000000
Pt 0.100000 0.041667 0.333333
Co 0.100000 0.541667 0.333333
Ni 1.000000 0.166666 0.333333
Co 1.000000 0.666667 0.333333
Ni 1.000000 0.083333 0.666666
Ni 1.000000 0.583333 0.666666
Ni 0.100000 0.208334 0.666666
Co 0.100000 0.708333 0.666666
Ni 1.000000 0.250000 1.000000
Co 1.000000 0.750000 1.000000
Co 0.100000 0.375000 1.000000
Mo 0.100000 0.875000 1.000000
Ni 0.100000 0.291666 0.333333
Ni 0.100000 0.791667 0.333333
Ni 1.000000 0.416666 0.333333
Pd 1.000000 0.916667 0.333333
Co 1.000000 0.333334 0.666666
Pd 1.000000 0.833333 0.666666
Ni 0.100000 0.458334 0.666666
Co 0.100000 0.958333 0.666666
Ni 0.200000 1.000000 1.000000
Co 0.200000 0.500000 1.000000
Mo 0.300000 0.125000 1.000000
Ni 0.300000 0.625000 1.000000
Co 0.300000 0.041667 0.333333
Mo 0.300000 0.541667 0.333333
Fe 0.200000 0.166666 0.333333
Co 0.200000 0.666667 0.333333
Ni 0.200000 0.083333 0.666666
Mo 0.200000 0.583333 0.666666
Co 0.300000 0.208334 0.666666
Pt 0.300000 0.708333 0.666666
Ni 0.200000 0.250000 1.000000
Ni 0.200000 0.750000 1.000000
Co 0.300000 0.375000 1.000000
Co 0.300000 0.875000 1.000000
Ni 0.300000 0.291666 0.333333
Mo 0.300000 0.791667 0.333333
Co 0.200000 0.416666 0.333333
Co 0.200000 0.916667 0.333333
Mo 0.200000 0.333334 0.666666
Mo 0.200000 0.833333 0.666666
Co 0.300000 0.458334 0.666666
Co 0.300000 0.958333 0.666666
Mo 0.400000 1.000000 1.000000
Ni 0.400000 0.500000 1.000000
Co 0.500000 0.125000 1.000000
Fe 0.500000 0.625000 1.000000
Mo 0.500000 0.041667 0.333333
Ni 0.500000 0.541667 0.333333
Ni 0.400000 0.166666 0.333333
Mo 0.400000 0.666667 0.333333
Pt 0.400000 0.083333 0.666666
Ni 0.400000 0.583333 0.666666
Ni 0.500000 0.208334 0.666666
Fe 0.500000 0.708333 0.666666
Fe 0.400000 0.250000 1.000000
Ni 0.400000 0.750000 1.000000
Ni 0.500000 0.375000 1.000000
Ni 0.500000 0.875000 1.000000
Mo 0.500000 0.291666 0.333333
Ni 0.500000 0.791667 0.333333
Ni 0.400000 0.416666 0.333333
Co 0.400000 0.916667 0.333333
Pt 0.400000 0.333334 0.666666
Mo 0.400000 0.833333 0.666666
Co 0.500000 0.458334 0.666666
Fe 0.500000 0.958333 0.666666
Ni 0.600000 1.000000 1.000000
Pd 0.600000 0.500000 1.000000
Co 0.700000 0.125000 1.000000
Pt 0.700000 0.625000 1.000000
Mo 0.700000 0.041667 0.333333
Co 0.700000 0.541667 0.333333
Fe 0.600000 0.166666 0.333333
Co 0.600000 0.666667 0.333333
Co 0.600000 0.083333 0.666666
Pd 0.600000 0.583333 0.666666
Ni 0.700000 0.208334 0.666666
Ni 0.700000 0.708333 0.666666
Pt 0.600000 0.250000 1.000000
Pd 0.600000 0.750000 1.000000
Mo 0.700000 0.375000 1.000000
Co 0.700000 0.875000 1.000000
Ni 0.700000 0.291666 0.333333
Fe 0.700000 0.791667 0.333333
Ni 0.600000 0.416666 0.333333
Ni 0.600000 0.916667 0.333333
Co 0.600000 0.333334 0.666666
Fe 0.600000 0.833333 0.666666
Ni 0.700000 0.458334 0.666666
Ni 0.700000 0.958333 0.666666
Pd 0.800000 1.000000 1.000000
Fe 0.800000 0.500000 1.000000
Mo 0.900000 0.125000 1.000000
Co 0.900000 0.625000 1.000000
Ni 0.900000 0.041667 0.333333
Co 0.900000 0.541667 0.333333
Co 0.800000 0.166666 0.333333
Mo 0.800000 0.666667 0.333333
Co 0.800000 0.083333 0.666666
Ni 0.800000 0.583333 0.666666
Ni 0.900000 0.208334 0.666666
Ni 0.900000 0.708333 0.666666
Co 0.800000 0.250000 1.000000
Ni 0.800000 0.750000 1.000000
Ni 0.900000 0.375000 1.000000
Fe 0.900000 0.875000 1.000000
Mo 0.900000 0.291666 0.333333
Co 0.900000 0.791667 0.333333
Ni 0.800000 0.416666 0.333333
Mo 0.800000 0.916667 0.333333
Ni 0.800000 0.333334 0.666666
Fe 0.800000 0.833333 0.666666
Co 0.900000 0.458334 0.666666
Co 0.900000 0.958333 0.666666
