data_global _chemical_name MyName
_cell_length_a 13.081475
_cell_length_b 14.800000
_cell_length_c 5.232590
_cell_angle_alpha 90.000000
_cell_angle_beta 90.000000
_cell_angle_gamma 90.000000
_symmetry_space_group_name_H-M 'P 1'
loop_
_atom_site_label
_atom_site_fract_x
_atom_site_fract_y
_atom_site_fract_z
Ni 1.000000 1.000000 1.000000
Ni 1.000000 0.500000 1.000000
Ni 1.000000 1.000000 0.500000
Ni 1.000000 0.500000 0.500000
Ni 0.100000 0.125000 0.250000
Co 0.100000 0.625000 0.250000
Ni 0.100000 0.125000 0.750000
Co 0.100000 0.625000 0.750000
Fe 1.000000 0.250000 1.000000
Mo 1.000000 0.750000 1.000000
Pd 1.000000 0.250000 0.500000
Ni 1.000000 0.750000 0.500000
Fe 0.100000 0.375000 0.250000
Ni 0.100000 0.875000 0.250000
Mo 0.100000 0.375000 0.750000
Co 0.100000 0.875000 0.750000
Mo 0.200000 1.000000 1.000000
Pt 0.200000 0.500000 1.000000
Fe 0.200000 1.000000 0.500000
Mo 0.200000 0.500000 0.500000
Co 0.300000 0.125000 0.250000
Co 0.300000 0.625000 0.250000
Pt 0.300000 0.125000 0.750000
Ni 0.300000 0.625000 0.750000
Ni 0.200000 0.250000 1.000000
Pt 0.200000 0.750000 1.000000
Fe 0.200000 0.250000 0.500000
Co 0.200000 0.750000 0.500000
Ni 0.300000 0.375000 0.250000
Mo 0.300000 0.875000 0.250000
Ni 0.300000 0.375000 0.750000
Co 0.300000 0.875000 0.750000
Co 0.400000 1.000000 1.000000
Ni 0.400000 0.500000 1.000000
Mo 0.400000 1.000000 0.500000
Mo 0.400000 0.500000 0.500000
Co 0.500000 0.125000 0.250000
Co 0.500000 0.625000 0.250000
Ni 0.500000 0.125000 0.750000
Ni 0.500000 0.625000 0.750000
Co 0.400000 0.250000 1.000000
Pd 0.400000 0.750000 1.000000
Ni 0.400000 0.250000 0.500000
Ni 0.400000 0.750000 0.500000
Co 0.500000 0.375000 0.250000
Co 0.500000 0.875000 0.250000
Fe 0.500000 0.375000 0.750000
Co 0.500000 0.875000 0.750000
Co 0.600000 1.000000 1.000000
Fe 0.600000 0.500000 1.000000
Ni 0.600000 1.000000 0.500000
Mo 0.600000 0.500000 0.500000
Co 0.700000 0.125000 0.250000
Ni 0.700000 0.625000 0.250000
Pd 0.700000 0.125000 0.750000
Mo 0.700000 0.625000 0.750000
Co 0.600000 0.250000 1.000000
Co 0.600000 0.750000 1.000000
Co 0.600000 0.250000 0.500000
Ni 0.600000 0.750000 0.500000
Ni 0.700000 0.375000 0.250000
Ni 0.700000 0.875000 0.250000
Co 0.700000 0.375000 0.750000
Mo 0.700000 0.875000 0.750000
Ni 0.800000 1.000000 1.000000
Ni 0.800000 0.500000 1.000000
Ni 0.800000 1.000000 0.500000
Mo 0.800000 0.500000 0.500000
Ni 0.900000 0.125000 0.250000
Co 0.900000 0.625000 0.250000
Mo 0.900000 0.125000 0.750000
Co 0.900000 0.625000 0.750000
Pt 0.800000 0.250000 1.000000
Ni 0.800000 0.750000 1.000000
Fe 0.800000 0.250000 0.500000
Fe 0.800000 0.750000 0.500000
Pd 0.900000 0.375000 0.250000
Ni 0.900000 0.875000 0.250000
Co 0.900000 0.375000 0.750000
Co 0.900000 0.875000 0.750000
